tests/fuzzer/corpus_json/24_columnar_21_random_029.json
{
  "version": "1.0",
  "type": "input",
  "is_batch": false,
  "attributes": {
    "node": [
      "id",
      "u_rated"
    ],
    "source": [
      "id",
      "node",
      "status",
      "u_ref",
      "u_ref_angle",
      "sk",
      "rx_ratio",
      "z01_ratio"
    ],
    "line": [
      "id",
      "from_node",
      "to_node",
      "from_status",
      "to_status",
      "r1",
      "x1",
      "c1",
      "tan1",
      "r0",
      "x0",
      "c0",
      "tan0",
      "i_n"
    ],
    "sym_load": [
      "id",
      "node",
      "status",
      "type",
      "p_specified",
      "q_specified"
    ]
  },
  "data": {
    "node": [
      [
        0,
        230.0
      ],
      [
        1,
        230.0
      ],
      [
        2,
        230.0
      ],
      [
        3,
        230.0
      ],
      [
        4,
        230.0
      ],
      [
        5,
        230.0
      ],
      [
        6,
        230.0
      ],
      [
        7,
        230.0
      ],
      [
        8,
        230.0
      ],
      [
        9,
        230.0
      ]
    ],
    "source": [
      [
        10,
        0,
        1,
        1.0689702177133256,
        0.0,
        345897240.15572107,
        0.1442987177026716,
        1.0
      ]
    ],
    "line": [
      [
        11,
        0,
        1,
        1,
        1,
        1.7190713954312908,
        2.077469640174961,
        9.738587963010672e-07,
        0.0,
        0.3,
        0.3,
        1e-09,
        0.0,
        112.69536218752054
      ],
      [
        12,
        1,
        2,
        1,
        1,
        2.223516428924986,
        1.1240378321362372,
        3.4956656460106914e-07,
        0.0,
        0.3,
        0.3,
        1e-09,
        0.0,
        998.7527094253234
      ],
      [
        13,
        2,
        3,
        1,
        1,
        1.6464948250895088,
        3.038888929123738,
        4.1961686936080477e-07,
        0.0,
        0.3,
        0.3,
        1e-09,
        0.0,
        733.149083162459
      ],
      [
        14,
        3,
        4,
        1,
        1,
        2.2360375887560884,
        0.8521789394113244,
        4.339126928458493e-07,
        0.0,
        0.3,
        0.3,
        1e-09,
        0.0,
        413.97952234395524
      ],
      [
        15,
        4,
        5,
        1,
        1,
        3.963587942860488,
        2.8130322517268,
        1.9640127974473076e-07,
        0.0,
        0.3,
        0.3,
        1e-09,
        0.0,
        677.1067602053752
      ],
      [
        16,
        5,
        6,
        1,
        1,
        1.4918770744754062,
        2.559454059246462,
        2.198562608566158e-07,
        0.0,
        0.3,
        0.3,
        1e-09,
        0.0,
        416.6469491201631
      ],
      [
        17,
        6,
        7,
        1,
        1,
        3.930565695185085,
        2.578519141066063,
        7.523228772512508e-07,
        0.0,
        0.3,
        0.3,
        1e-09,
        0.0,
        759.1721486770637
      ],
      [
        18,
        7,
        8,
        1,
        1,
        2.9354673142718584,
        3.225801679171682,
        3.9728674904228456e-07,
        0.0,
        0.3,
        0.3,
        1e-09,
        0.0,
        621.7724902924887
      ],
      [
        19,
        8,
        9,
        1,
        1,
        3.886192064556159,
        0.4959183831163244,
        9.37629885149392e-07,
        0.0,
        0.3,
        0.3,
        1e-09,
        0.0,
        373.56506577793186
      ]
    ],
    "sym_load": [
      [
        20,
        1,
        1,
        0,
        37713.5132859289,
        6039.072881529615
      ],
      [
        21,
        2,
        1,
        0,
        -16982.283256675742,
        3106.9300213459464
      ],
      [
        22,
        3,
        1,
        2,
        31874.975794099475,
        -3579.5905075251785
      ],
      [
        23,
        9,
        1,
        1,
        -96956.92066504486,
        5100.90113012142
      ]
    ]
  }
}
